32
energy:  -668.541769  charge:  1.000000
C -1.86611846 2.33589154 0.58257504 -0.15000000000000036
N -1.70571163 1.18075209 -0.38451644 -0.019999999999999574
C -2.41304712 -0.15249706 -0.02642138 0.019999999999999574
C -1.96702540 -1.04012251 -1.21220437 -0.16999999999999993
C -0.54994005 -0.50184606 -1.62803595 -0.16999999999999993
C -0.27064073 0.69381234 -0.68416491 0.019999999999999574
C 0.38688573 0.26792939 0.64487832 -0.17999999999999972
C -0.37536572 -0.87914199 1.36310532 0.07000000000000028
C -1.89578852 -0.63648796 1.33437377 -0.17999999999999972
O -0.13707322 -2.18299564 0.74366977 -0.3699999999999992
C 1.82595445 -0.12817479 0.35743264 0.2599999999999998
O 2.34744179 -1.21839446 0.62649307 -0.25
O 2.49028938 0.88286912 -0.25598614 -0.1899999999999995
C 3.91165469 0.61492796 -0.62472705 -0.08999999999999986
H -2.93004769 2.56781871 0.64491993 0.13
H -1.48274336 2.06222035 1.56040515 0.13
H -1.31417212 3.18441550 0.17656055 0.13
H -3.48535340 0.04586075 -0.00031660 0.12
H -1.90345735 -2.07778302 -0.89424206 0.12
H -2.67265455 -0.94108886 -2.04046545 0.10999999999999999
H 0.20275261 -1.27485477 -1.48602536 0.10999999999999999
H -0.55130173 -0.16406672 -2.66647582 0.10999999999999999
H 0.28102233 1.51349489 -1.14138727 0.13
H 0.43689322 1.13549611 1.31325070 0.14
H -0.04262271 -0.88901142 2.40990002 0.08999999999999997
H -2.38227232 -1.59128491 1.55628463 0.12
H -2.17671168 0.06949262 2.12150489 0.10999999999999999
H 0.86194439 -2.28509330 0.74533241 0.24
H 3.97259798 -0.29465876 -1.22394703 0.10999999999999999
H 4.21267007 1.49004484 -1.19576118 0.12
H 4.51090357 0.50863732 0.28093798 0.10999999999999999
H -2.09875152 1.49583384 -1.28820355 0.27
