49
energy:  -1171.465158  charge:  0.980000
C -4.61757640 -1.73585527 1.38864093 -0.13999999999999968
C -3.36121512 -1.17281853 1.27947522 -0.009999999999999787
N -3.56888719 0.20199050 1.27881048 -0.16000000000000014
C -4.92094400 0.42299626 1.38272869 -0.019999999999999574
N -5.59533964 -0.73154083 1.45497362 -0.25
C -1.99999805 -1.80155443 1.18846128 -0.16000000000000014
C -1.05189649 -1.08879593 0.17800718 -0.03000000000000025
C -0.41389571 0.18831497 0.79388767 0.21999999999999975
O -1.09281196 1.23858744 0.99695697 -0.3200000000000003
N 0.89278986 0.08980506 1.05618113 -0.20000000000000018
C 1.78669777 1.19351976 1.42140992 -0.03000000000000025
C 1.66178433 2.40323508 0.45803210 -0.16999999999999993
C 1.89874339 2.03429327 -1.02895917 -0.17999999999999972
C 1.09060303 2.94995639 -1.98226376 -0.16999999999999993
C -0.41937655 2.64786434 -1.98418247 -0.05999999999999961
N -0.74695338 1.40750141 -2.83212639 -0.15000000000000036
C 3.18677210 0.59224398 1.35899146 0.2400000000000002
O 3.43888756 -0.57882151 1.06257714 -0.2599999999999998
O 4.12001301 1.52513329 1.66646069 -0.25
N -0.01752514 -2.01500466 -0.27629504 -0.21999999999999975
C 0.70361342 -1.81858662 -1.39696647 0.20999999999999996
O 0.52060272 -0.89509786 -2.23487857 -0.3100000000000005
C 1.83482081 -2.84470835 -1.55074237 -0.1200000000000001
N 2.18288332 -3.39034778 -0.21758907 -0.3700000000000001
H -4.87068321 -2.78259585 1.41955495 0.09999999999999998
H -1.76936456 1.25756496 -2.84524069 0.26
H -5.35069015 1.41014140 1.39466782 0.10999999999999999
H -2.12536552 -2.83401980 0.84751214 0.13
H -1.50601692 -1.83219857 2.16865037 0.12
H -1.62701416 -0.75169664 -0.68938781 0.12
H 1.37331146 -0.79373103 0.89269254 0.21999999999999997
H 1.60086311 1.53215805 2.44747127 0.13
H 0.65567731 2.80208398 0.59952778 0.09999999999999998
H 2.37997005 3.16000264 0.78299091 0.10999999999999999
H 2.96656504 2.12937865 -1.25810841 0.09999999999999998
H 1.61812614 0.99361197 -1.21444492 0.08999999999999997
H 1.47590584 2.86769292 -3.00641956 0.09999999999999998
H 1.21561079 3.99574861 -1.67586235 0.10999999999999999
H -0.79931837 2.42812717 -0.98584227 0.10999999999999999
H -0.98378584 3.47064125 -2.42617317 0.12
H -0.28550641 0.51611002 -2.47456370 0.24
H -0.44008911 1.55206759 -3.80764363 0.26
H 5.04292222 1.14763652 1.60371479 0.30000000000000004
H 0.36224698 -2.77690307 0.31268874 0.22999999999999998
H 1.46917119 -3.66115078 -2.18331680 0.13
H 2.65273822 -2.34363191 -2.08235678 0.09999999999999998
H 2.57610626 -4.33302395 -0.27763099 0.19999999999999996
H 2.83442129 -2.76391908 0.27004817 0.18000000000000005
H -2.78424351 0.87085378 1.17182436 0.21999999999999997
