41
energy:  -818.999628  charge:  1.000000
C 3.86583345 1.19562275 -0.72110526 -0.2699999999999996
C 3.25454468 0.44435673 0.48310785 -0.08000000000000007
C 4.36559041 -0.33844691 1.21968466 -0.2599999999999998
C 2.11711469 -0.52027685 0.02309498 -0.04999999999999982
C 1.02068993 0.25699570 -0.72291956 0.20999999999999996
O 1.09417952 0.47114663 -1.95501666 -0.3200000000000003
N -0.00673071 0.68693251 0.05127279 -0.21999999999999975
C -1.15699492 1.44348882 -0.46165036 -0.03000000000000025
C -1.87842893 0.77467063 -1.68081697 -0.16000000000000014
C -2.52923844 -0.60227705 -1.39908235 -0.17999999999999972
C -1.54338751 -1.81677505 -1.36793760 -0.17999999999999972
C -1.64197468 -2.67572483 -0.09688900 -0.04999999999999982
N -1.13309425 -1.94824942 1.14698552 -0.20999999999999996
C -2.17018351 1.52954991 0.65870680 0.25
O -2.28752346 0.70268940 1.57463887 -0.2599999999999998
O -2.99998032 2.58137654 0.48344308 -0.2400000000000002
N 1.52702626 -1.31244252 1.16048256 -0.3200000000000003
H 3.10275523 1.71464721 -1.30571554 0.08999999999999997
H 4.37672933 0.48241113 -1.37991765 0.08999999999999997
H 4.60077772 1.92544495 -0.36553599 0.09999999999999998
H 2.80337969 1.17099940 1.17397551 0.08999999999999997
H 5.15679129 0.35127706 1.53329767 0.09999999999999998
H 3.98516161 -0.84881431 2.11013062 0.08999999999999997
H 4.80348332 -1.08492273 0.54542422 0.08999999999999997
H 2.53003141 -1.22548028 -0.70311609 0.10999999999999999
H 0.05638909 0.58423817 1.06068648 0.21999999999999997
H -0.86512848 2.45629693 -0.75537057 0.12
H -2.65493238 1.48380288 -1.98707692 0.09999999999999998
H -1.13736125 0.69407673 -2.47720653 0.10999999999999999
H -3.26248412 -0.77697713 -2.19405593 0.09999999999999998
H -3.10323708 -0.56092309 -0.46607227 0.08999999999999997
H -1.77932220 -2.48724645 -2.20266021 0.10999999999999999
H -0.51466829 -1.48633155 -1.52054685 0.09999999999999998
H -2.67902047 -2.96330787 0.09408775 0.10999999999999999
H -1.03183658 -3.57643448 -0.19276399 0.10999999999999999
H -1.28961132 -2.53506584 1.98122950 0.25
H -1.62508876 -1.04118169 1.30264130 0.21999999999999997
H -3.74040236 2.57590792 1.15593082 0.30000000000000004
H 2.02754839 -2.20255386 1.27509689 0.21999999999999997
H 1.60690490 -0.79479630 2.04822366 0.20999999999999996
H -0.04412083 -1.72516071 1.07845625 0.24
